Version 4
SHEET 1 23584 728
WIRE -3008 112 -3072 112
WIRE -2912 112 -2928 112
WIRE -2880 112 -2912 112
WIRE -2752 112 -2816 112
WIRE -2512 112 -2752 112
WIRE -2400 128 -2448 128
WIRE -2112 128 -2336 128
WIRE -2016 128 -2032 128
WIRE -1856 128 -2016 128
WIRE -1680 128 -1856 128
WIRE -464 128 -528 128
WIRE -352 128 -384 128
WIRE -336 128 -352 128
WIRE -208 128 -272 128
WIRE 96 128 -208 128
WIRE -2512 144 -2544 144
WIRE 208 144 160 144
WIRE 592 144 272 144
WIRE 688 144 672 144
WIRE 848 144 688 144
WIRE 912 144 848 144
WIRE 1088 144 912 144
WIRE 1200 144 1152 144
WIRE 1312 144 1200 144
WIRE -3072 160 -3072 112
WIRE -2752 160 -2752 112
WIRE -1856 160 -1856 128
WIRE 96 160 64 160
WIRE 1200 160 1200 144
WIRE 1440 160 1376 160
WIRE 1456 160 1440 160
WIRE 1552 160 1520 160
WIRE 1680 160 1632 160
WIRE 1904 160 1680 160
WIRE -2912 176 -2912 112
WIRE -528 176 -528 128
WIRE -208 176 -208 128
WIRE 848 176 848 144
WIRE 912 176 912 144
WIRE 1312 176 1296 176
WIRE -2544 192 -2544 144
WIRE -2512 192 -2544 192
WIRE -2400 192 -2400 128
WIRE -2400 192 -2448 192
WIRE 1680 192 1680 160
WIRE -2016 208 -2016 128
WIRE -1680 208 -1680 128
WIRE 64 208 64 160
WIRE 96 208 64 208
WIRE 160 208 144 208
WIRE 208 208 208 144
WIRE 208 208 160 208
WIRE -352 224 -352 128
WIRE 688 224 688 144
WIRE -1584 240 -1648 240
WIRE 1296 240 1296 176
WIRE 1440 240 1440 160
WIRE 1440 240 1296 240
WIRE 1904 240 1904 160
WIRE -2544 256 -2544 192
WIRE -2512 256 -2544 256
WIRE -2400 256 -2400 192
WIRE -2400 256 -2432 256
WIRE 64 256 64 208
WIRE 96 256 64 256
WIRE 208 256 208 208
WIRE 208 256 176 256
WIRE 2000 272 1936 272
WIRE -2544 288 -2544 256
WIRE 64 288 64 256
WIRE 1680 288 1680 256
WIRE -2544 368 -2544 352
WIRE 1648 368 1648 336
WIRE 1680 368 1648 368
WIRE -2176 384 -2176 352
WIRE 480 384 480 368
WIRE 64 416 64 400
WIRE -2752 464 -2752 240
WIRE -2304 464 -2304 432
WIRE -2304 464 -2752 464
WIRE -2176 464 -2176 448
WIRE -2176 464 -2304 464
WIRE -2016 464 -2016 272
WIRE -1856 464 -1856 224
WIRE -1680 464 -1680 288
WIRE 64 464 32 464
WIRE -3072 480 -3072 240
WIRE -2912 480 -2912 256
WIRE -2544 480 -2544 448
WIRE -2304 480 -2304 464
WIRE -208 480 -208 256
WIRE 400 480 400 448
WIRE 400 480 -208 480
WIRE 480 480 480 448
WIRE 480 480 400 480
WIRE 1200 480 1200 240
WIRE 1200 480 480 480
WIRE -528 496 -528 256
WIRE -352 496 -352 304
WIRE 64 496 64 464
WIRE 400 496 400 480
WIRE 688 496 688 288
WIRE 848 496 848 240
WIRE 912 496 912 240
WIRE 1680 496 1680 368
WIRE 1904 496 1904 320
WIRE -2480 560 -2480 160
WIRE -2304 560 -2480 560
WIRE -2096 560 -2304 560
WIRE 128 576 128 176
WIRE 400 576 128 576
WIRE 432 576 400 576
WIRE 1344 576 1344 192
WIRE 1344 576 432 576
WIRE -2096 672 -2096 640
WIRE 432 688 432 656
FLAG -528 496 0
FLAG 688 496 0
FLAG 848 496 0
FLAG 912 496 0
FLAG 432 688 0
FLAG 1680 496 0
FLAG 1904 496 0
FLAG 128 112 0
FLAG 1344 128 0
FLAG 400 368 0
FLAG 480 368 0
FLAG -3072 480 0
FLAG -2544 480 0
FLAG -2096 672 0
FLAG -1680 464 0
FLAG -2480 96 0
FLAG -2304 352 0
FLAG -2176 352 0
FLAG -2016 464 0
FLAG -1856 464 0
FLAG -2912 480 0
FLAG 64 496 0
FLAG -352 496 0
SYMBOL res -368 112 R90
WINDOW 0 0 56 VBottom 2
WINDOW 3 32 56 VTop 2
SYMATTR InstName R1
SYMATTR Value 1k
SYMBOL cap -272 112 R90
WINDOW 0 0 32 VBottom 2
WINDOW 3 32 32 VTop 2
SYMATTR InstName C1
SYMATTR Value 60n
SYMBOL res -224 160 R0
SYMATTR InstName R2
SYMATTR Value 1Meg
SYMBOL voltage -528 160 R0
WINDOW 123 24 124 Left 2
WINDOW 39 0 0 Left 0
SYMATTR Value2 AC 1
SYMATTR InstName V1
SYMATTR Value ""
SYMBOL res 192 240 R90
WINDOW 0 56 76 VBottom 2
WINDOW 3 28 23 VTop 2
SYMATTR InstName R3
SYMATTR Value 300k
SYMBOL cap 48 256 R0
WINDOW 0 -45 4 Left 2
WINDOW 3 -64 35 Left 2
SYMATTR InstName C2
SYMATTR Value 150n
SYMBOL res 48 304 R0
WINDOW 0 -67 47 Left 2
WINDOW 3 -30 47 Left 2
SYMATTR InstName R4
SYMATTR Value 1k
SYMBOL voltage 432 560 R0
WINDOW 123 0 0 Left 0
WINDOW 39 0 0 Left 0
SYMATTR InstName V2
SYMATTR Value 9
SYMBOL res 688 128 R90
WINDOW 0 0 56 VBottom 2
WINDOW 3 32 56 VTop 2
SYMATTR InstName R5
SYMATTR Value 10k
SYMBOL diode 672 224 R0
SYMATTR InstName D1
SYMATTR Value 1N4148
SYMBOL diode 864 240 R180
WINDOW 0 24 64 Left 2
WINDOW 3 24 0 Left 2
SYMATTR InstName D2
SYMATTR Value 1N4148
SYMBOL cap 896 176 R0
SYMATTR InstName C3
SYMATTR Value 3.3n
SYMBOL res 1648 144 R90
WINDOW 0 0 56 VBottom 2
WINDOW 3 32 56 VTop 2
SYMATTR InstName R6
SYMATTR Value 6.8k
SYMBOL cap 1664 192 R0
SYMATTR InstName C4
SYMATTR Value 28n
SYMBOL pot_ 1920 224 M0
SYMATTR InstName U4
SYMATTR Value Rtot=500k
SYMBOL pot_ 1664 240 M0
SYMATTR InstName U3
SYMATTR Value Rtot=20k
SYMBOL res 384 480 R0
WINDOW 0 -29 22 Left 2
WINDOW 3 -41 62 Left 2
SYMATTR InstName R7
SYMATTR Value 51k
SYMBOL res 416 464 R180
WINDOW 0 36 76 Left 2
WINDOW 3 36 40 Left 2
SYMATTR InstName R8
SYMATTR Value 51k
SYMBOL cap 464 384 R0
SYMATTR InstName C5
SYMATTR Value 47µ
SYMBOL res -2912 96 R90
WINDOW 0 0 56 VBottom 2
WINDOW 3 32 56 VTop 2
SYMATTR InstName R9
SYMATTR Value 1k
SYMBOL cap -2816 96 R90
WINDOW 0 0 32 VBottom 2
WINDOW 3 32 32 VTop 2
SYMATTR InstName C6
SYMATTR Value 60n
SYMBOL res -2768 144 R0
SYMATTR InstName R10
SYMATTR Value 1Meg
SYMBOL voltage -3072 144 R0
WINDOW 123 24 124 Left 2
WINDOW 39 0 0 Left 0
SYMATTR Value2 AC 1
SYMATTR InstName V3
SYMATTR Value 0
SYMBOL res -2416 240 R90
WINDOW 0 46 -4 VBottom 2
WINDOW 3 32 56 VTop 2
SYMATTR InstName R11
SYMATTR Value 500k
SYMBOL cap -2560 288 R0
SYMATTR InstName C7
SYMATTR Value 10µ
SYMBOL res -2560 352 R0
SYMATTR InstName R12
SYMATTR Value 2k
SYMBOL voltage -2096 544 R0
WINDOW 123 0 0 Left 0
WINDOW 39 0 0 Left 0
SYMATTR InstName V4
SYMATTR Value 9
SYMBOL res -2016 112 R90
WINDOW 0 0 56 VBottom 2
WINDOW 3 32 56 VTop 2
SYMATTR InstName R13
SYMATTR Value 10k
SYMBOL diode -2032 208 R0
SYMATTR InstName D3
SYMATTR Value 1N4148
SYMBOL diode -1840 224 R180
WINDOW 0 24 64 Left 2
WINDOW 3 24 0 Left 2
SYMATTR InstName D4
SYMATTR Value 1N4148
SYMBOL pot_ -1664 192 M0
SYMATTR InstName U7
SYMATTR Value Rtot=100K
SYMBOL res -2320 464 R0
SYMATTR InstName R15
SYMATTR Value 51k
SYMBOL res -2320 336 R0
SYMATTR InstName R16
SYMATTR Value 51k
SYMBOL cap -2192 384 R0
SYMATTR InstName C10
SYMATTR Value 47µ
SYMBOL cap -2336 112 R90
WINDOW 0 0 32 VBottom 2
WINDOW 3 49 34 VTop 2
SYMATTR InstName C8
SYMATTR Value 10µ
SYMBOL res -2928 160 R0
SYMATTR InstName R14
SYMATTR Value 1Meg
SYMBOL ZZZ\\OpAmp\\NE5532 -2480 128 M180
WINDOW 3 -97 -57 Left 2
SYMATTR InstName U6
SYMBOL pot_ 48 368 M0
SYMATTR InstName U5
SYMATTR Value Rtot=100k
SYMBOL cap -2448 176 R90
WINDOW 0 50 62 VBottom 2
WINDOW 3 23 -2 VTop 2
SYMATTR InstName C9
SYMATTR Value 47p
SYMBOL cap 272 128 R90
WINDOW 0 -4 19 VBottom 2
WINDOW 3 36 15 VTop 2
SYMATTR InstName C11
SYMATTR Value 10µ
SYMBOL cap 1152 128 R90
WINDOW 0 0 32 VBottom 2
WINDOW 3 32 32 VTop 2
SYMATTR InstName C12
SYMATTR Value 100n
SYMBOL res 1184 144 R0
SYMATTR InstName R17
SYMATTR Value 1Meg
SYMBOL cap 1520 144 R90
WINDOW 0 0 32 VBottom 2
WINDOW 3 32 32 VTop 2
SYMATTR InstName C13
SYMATTR Value 2.2µ
SYMBOL res -368 208 R0
SYMATTR InstName R18
SYMATTR Value 1Meg
SYMBOL ZZZ\\OpAmp\\NE5532 128 144 M180
WINDOW 0 -74 34 Left 2
WINDOW 3 -99 61 Left 2
SYMATTR InstName U8
SYMBOL ZZZ\\OpAmp\\NE5532 1344 160 M180
SYMATTR InstName U1
SYMBOL cap 160 192 R90
WINDOW 0 15 65 VBottom 2
WINDOW 3 -17 -4 VTop 2
SYMATTR InstName C14
SYMATTR Value 47p
TEXT -2920 8 Left 2 ;Input Stage
TEXT -2536 8 Left 2 ;Gain Stage
TEXT -2040 16 Left 2 ;Clipping Stage
TEXT -1720 80 Left 2 ;Output Stage
TEXT -376 24 Left 2 ;Input Stage
TEXT 48 24 Left 2 ;Gain Stage
TEXT 712 24 Left 2 ;Clipping Stage
TEXT 1304 32 Left 2 ;Tonestack Stage
TEXT 1832 72 Left 2 ;Output Stage
RECTANGLE Normal -2640 512 -3024 32 2
RECTANGLE Normal -2336 528 -2608 32 2
RECTANGLE Normal -1792 512 -2112 48 2
RECTANGLE Normal -1568 496 -1760 112 2
RECTANGLE Normal -96 528 -480 64 2
RECTANGLE Normal 304 528 -48 64 2
RECTANGLE Normal 1040 544 560 64 2
RECTANGLE Normal 1744 544 1072 64 2
RECTANGLE Normal 2032 544 1792 112 2
